/*--------------------------------*- C++ -*----------------------------------*\
| =========                 |                                                 |
| \\      /  F ield         | OpenFOAM: The Open Source CFD Toolbox           |
|  \\    /   O peration     | Version:  1.6                                   |
|   \\  /    A nd           | Web:      http://www.OpenFOAM.org               |
|    \\/     M anipulation  |                                                 |
\*---------------------------------------------------------------------------*/
FoamFile
{
    version     2.0;
    format      ascii;
    class       dictionary;
    object      blockMeshDict;
}
// * * * * * * * * * * * * * * * * * * * * * * * * * * * * * * * * * * * * * //

convertToMeters 1;

vertices
(
    ( 0.025 -0.025 0  )
    ( 0.025  0.025 0  )
    (-0.025  0.025 0  )
    (-0.025 -0.025 0  )
    ( 0.025 -0.025 0.1)
    ( 0.025  0.025 0.1)
    (-0.025  0.025 0.1)
    (-0.025 -0.025 0.1)
);

blocks
(
    hex (0 1 2 3 4 5 6 7) (50 50 100) simpleGrading (1 1 1)
);

edges
(
);

patches
(
   cyclic perio_x
   (
    (0 1 5 4)
    (3 2 6 7)
    )
   cyclic perio_y
   (
    (3 0 4 7)
    (2 1 5 6)
    )
   cyclic perio_z
   (
    (3 0 1 2)
    (7 4 5 6)
    )    

);

mergePatchPairs
(
);

// ************************************************************************* //
